17

C	0.0000000	0.0000000	0.0000000
C	0.8871920	0.8871920	0.8871920
C	-0.8871920	-0.8871920	0.8871920
C	-0.8871920	0.8871920	-0.8871920
C	0.8871920	-0.8871920	-0.8871920
H	1.5301390	0.2826010	1.5301390
H	1.5301390	1.5301390	0.2826010
H	0.2826010	1.5301390	1.5301390
H	-1.5301390	-1.5301390	0.2826010
H	-0.2826010	-1.5301390	1.5301390
H	-1.5301390	-0.2826010	1.5301390
H	-1.5301390	0.2826010	-1.5301390
H	-1.5301390	1.5301390	-0.2826010
H	-0.2826010	1.5301390	-1.5301390
H	1.5301390	-1.5301390	-0.2826010
H	0.2826010	-1.5301390	-1.5301390
H	1.5301390	-0.2826010	-1.5301390
